Branch test
New line.
Dec 23 - line added
