Branch test
New line.
Dec 23 - line added
Dec 28 - Line Added.
